McPAT (version 1.3 of Feb, 2015) is computing the target processor...
 

McPAT (version 1.3 of Feb, 2015) results (current print level is 0, please increase print level to see the details in components): 
*****************************************************************************************
  Technology 22 nm
  Using Long Channel Devices When Appropriate
  Interconnect metal projection= aggressive interconnect technology projection
  Core clock Rate(MHz) 2100

*****************************************************************************************
Processor: 
  Area = 47.5138 mm^2
  Peak Power = 42.1202 W
  Total Leakage = 0.907271 W
  Peak Dynamic = 41.213 W
  Subthreshold Leakage = 0.891504 W
  Gate Leakage = 0.0157674 W
  Runtime Dynamic = 3.06676 W

  Total Cores: 1 cores 
  Device Type= ITRS high performance device type
    Area = 31.6965 mm^2
    Peak Dynamic = 36.8932 W
    Subthreshold Leakage = 0.51365 W
    Gate Leakage = 0.00777382 W
    Runtime Dynamic = 2.68831 W

  Total L3s: 
  Device Type= ITRS high performance device type
    Area = 12.6426 mm^2
    Peak Dynamic = 0.473948 W
    Subthreshold Leakage = 0.312505 W
    Gate Leakage = 0.00625955 W
    Runtime Dynamic = 0.000315398 W

  Total First Level Directory: 
  Device Type= ITRS high performance device type
    Area = 0.0981263 mm^2
    Peak Dynamic = 0.0171798 W
    Subthreshold Leakage = 0.00271355 W
    Gate Leakage = 0.000105986 W
    Runtime Dynamic = 0.000391856 W

  Total Second Level Directory: 
  Device Type= ITRS high performance device type
    Area = 2.44768 mm^2
    Peak Dynamic = 0.0158601 W
    Subthreshold Leakage = 0.0590133 W
    Gate Leakage = 0.0014502 W
    Runtime Dynamic = 2.06259e-05 W

  Total NoCs (Network/Bus): 
  Device Type= ITRS high performance device type
    Area = 0.0436969 mm^2
    Peak Dynamic = 0.054217 W
    Subthreshold Leakage = 0.0014192 W
    Gate Leakage = 3.92599e-05 W
    Runtime Dynamic = 8.09405e-05 W

  Total MCs: 1 Memory Controllers 
  Device Type= ITRS high performance device type
    Area = 0.585266 mm^2
    Peak Dynamic = 3.75856 W
    Subthreshold Leakage = 0.00220167 W
    Gate Leakage = 0.000138626 W
    Runtime Dynamic = 0.37764 W

*****************************************************************************************
